trattoria_core-0.2.2.dist-info/METADATA,sha256=7pGAk1s-oLGrIve0GdLwmKGPrHyrK9LKSYCHiV8i5UM,448
trattoria_core-0.2.2.dist-info/WHEEL,sha256=MT3DwHY5NKmzjNPpPbf0eXsp-b7ApWmdqZ12k72Nobo,105
trattoria_core.cpython-36m-darwin.so,sha256=A5x1qyvNockLr_NVFrx6DDmuneqQhtV06RHbyHMCnTc,453056
trattoria_core-0.2.2.dist-info/RECORD,,
