trattoria_core-0.3.0.dist-info/METADATA,sha256=Y8RmuklshcvYSxFnbiWHEgUE5mGIrjOP3CvcmqFx3Zw,448
trattoria_core-0.3.0.dist-info/WHEEL,sha256=MT3DwHY5NKmzjNPpPbf0eXsp-b7ApWmdqZ12k72Nobo,105
trattoria_core.cpython-36m-darwin.so,sha256=NENa07AIpzye7Z-xVxMZ1kryyqFNZ0JMxHwlTwYa-Bc,469512
trattoria_core-0.3.0.dist-info/RECORD,,
